
 *******************************************************************************

         NASA-GLENN CHEMICAL EQUILIBRIUM PROGRAM CEA2, MAY 21, 2004
                   BY  BONNIE MCBRIDE AND SANFORD GORDON
      REFS: NASA RP-1311, PART I, 1994 AND NASA RP-1311, PART II, 1996

 *******************************************************************************



 problem case=L22_analise_nitrometano
  
    rocket equilibrium frozen nfz=3
  
  p,bar=10,
  
  sup,ae/at=250,
  
  o/f=0.5,0.75,1,1.5,2,2.5,3,3.5,4,4.5,5,
  
 react
  
  fuel=CH3NO2(L) wt=100 t,k=298.15
  
  oxid=N2O wt=100 t,k=300
  
 output siunits short transpot
  
     plot isp cf o/f aeat
  
 end






              THEORETICAL ROCKET PERFORMANCE ASSUMING EQUILIBRIUM

           COMPOSITION DURING EXPANSION FROM INFINITE AREA COMBUSTOR

 Pin =   145.0 PSIA
 CASE = L22_analise_nit

             REACTANT                    WT FRACTION      ENERGY      TEMP
                                          (SEE NOTE)     KJ/KG-MOL      K  
 FUEL        CH3NO2(L)                    1.0000000   -113100.000    298.150
 OXIDANT     N2O                          1.0000000     81671.539    300.000

 O/F=    0.50000  %FUEL= 66.666667  R,EQ.RATIO= 1.299456  PHI,EQ.RATIO= 2.163145

                 CHAMBER   THROAT     EXIT
 Pinf/P            1.0000   1.7392  5386.71
 P, BAR            10.000   5.7497  0.00186
 T, K             3040.02  2865.30   698.16
 RHO, KG/CU M    9.5134-1 5.8630-1 7.9281-4
 H, KJ/KG         -616.71 -1178.83 -5535.36
 U, KJ/KG        -1667.87 -2159.51 -5769.51
 G, KJ/KG        -34717.0 -33319.3 -13366.7
 S, KJ/(KG)(K)    11.2171  11.2171  11.2171

 M, (1/n)          24.046   24.293   24.791
 (dLV/dLP)t      -1.01658 -1.01135 -1.00005
 (dLV/dLT)p        1.3504   1.2552   1.0008
 Cp, KJ/(KG)(K)    4.4947   3.8776   1.7346
 GAMMAs            1.1412   1.1464   1.2401
 SON VEL,M/SEC     1095.2   1060.3    538.9
 MACH NUMBER        0.000    1.000    5.820

 TRANSPORT PROPERTIES (GASES ONLY)
   CONDUCTIVITY IN UNITS OF MILLIWATTS/(CM)(K)

 VISC,MILLIPOISE  0.96497  0.92733  0.34030

  WITH EQUILIBRIUM REACTIONS

 Cp, KJ/(KG)(K)    4.4947   3.8776   1.7346
 CONDUCTIVITY      8.7975   7.1311   0.9373
 PRANDTL NUMBER    0.4930   0.5042   0.6298

  WITH FROZEN REACTIONS

 Cp, KJ/(KG)(K)    1.8857   1.8746   1.4749
 CONDUCTIVITY      2.7565   2.6089   0.8140
 PRANDTL NUMBER    0.6601   0.6663   0.6166

 PERFORMANCE PARAMETERS

 Ae/At                     1.00000   250.00
 CSTAR, M/SEC               1608.6   1608.6
 CF                         0.6591   1.9498
 Ivac, M/SEC                1985.2   3211.1
 Isp, M/SEC                 1060.3   3136.4


 MOLE FRACTIONS

 CH4              0.00000  0.00000  0.00001
 *CO              0.16527  0.15991  0.02375
 *CO2             0.09735  0.10541  0.24699
 *H               0.01486  0.01112  0.00000
 HO2              0.00001  0.00000  0.00000
 *H2              0.06923  0.06750  0.19458
 H2O              0.30514  0.31648  0.21153
 *NO              0.00489  0.00302  0.00000
 *N2              0.31098  0.31513  0.32313
 *O               0.00292  0.00158  0.00000
 *OH              0.02426  0.01687  0.00000
 *O2              0.00507  0.00296  0.00000

  * THERMODYNAMIC PROPERTIES FITTED TO 20000.K

 NOTE. WEIGHT FRACTION OF FUEL IN TOTAL FUELS AND OF OXIDANT IN TOTAL OXIDANTS





           THEORETICAL ROCKET PERFORMANCE ASSUMING FROZEN COMPOSITION
                                 AFTER POINT 3

 Pin =   145.0 PSIA
 CASE = L22_analise_nit

             REACTANT                    WT FRACTION      ENERGY      TEMP
                                          (SEE NOTE)     KJ/KG-MOL      K  
 FUEL        CH3NO2(L)                    1.0000000   -113100.000    298.150
 OXIDANT     N2O                          1.0000000     81671.539    300.000

 O/F=    0.50000  %FUEL= 66.666667  R,EQ.RATIO= 1.299456  PHI,EQ.RATIO= 2.163145

                 CHAMBER   THROAT     EXIT
 Pinf/P            1.0000   1.7392  5386.71
 P, BAR            10.000   5.7497  0.00186
 T, K             3040.02  2865.30   698.16
 RHO, KG/CU M    9.5134-1 5.8630-1 7.9281-4
 H, KJ/KG         -616.71 -1178.83 -5535.36
 U, KJ/KG        -1667.87 -2159.51 -5769.51
 G, KJ/KG        -34717.0 -33319.3 -13366.7
 S, KJ/(KG)(K)    11.2171  11.2171  11.2171

 M, (1/n)          24.046   24.293   24.791
 Cp, KJ/(KG)(K)    4.4947   3.8776   1.7346
 GAMMAs            1.1412   1.1464   1.2401
 SON VEL,M/SEC     1095.2   1060.3    538.9
 MACH NUMBER        0.000    1.000    5.820

 TRANSPORT PROPERTIES (GASES ONLY)
   CONDUCTIVITY IN UNITS OF MILLIWATTS/(CM)(K)

 VISC,MILLIPOISE  0.96497  0.92733  0.34030

  WITH FROZEN REACTIONS

 Cp, KJ/(KG)(K)    1.8857   1.8746   1.4749
 CONDUCTIVITY      2.7565   2.6089   0.8140
 PRANDTL NUMBER    0.6601   0.6663   0.6166

 PERFORMANCE PARAMETERS

 Ae/At                     1.00000   250.00
 CSTAR, M/SEC               1608.6   1608.6
 CF                         0.6591   1.9498
 Ivac, M/SEC                1985.2   3211.1
 Isp, M/SEC                 1060.3   3136.4

 MOLE FRACTIONS

 *CO             0.17039   *CO2            0.10037   *H              0.01532
 HO2             0.00001   *H2             0.07137   H2O             0.31459
 *NO             0.00504   *N2             0.32060   *O              0.00301
 *OH             0.02501   *O2             0.00523

  * THERMODYNAMIC PROPERTIES FITTED TO 20000.K

 NOTE. WEIGHT FRACTION OF FUEL IN TOTAL FUELS AND OF OXIDANT IN TOTAL OXIDANTS










              THEORETICAL ROCKET PERFORMANCE ASSUMING EQUILIBRIUM

           COMPOSITION DURING EXPANSION FROM INFINITE AREA COMBUSTOR

 Pin =   145.0 PSIA
 CASE = L22_analise_nit

             REACTANT                    WT FRACTION      ENERGY      TEMP
                                          (SEE NOTE)     KJ/KG-MOL      K  
 FUEL        CH3NO2(L)                    1.0000000   -113100.000    298.150
 OXIDANT     N2O                          1.0000000     81671.539    300.000

 O/F=    0.75000  %FUEL= 57.142857  R,EQ.RATIO= 1.151258  PHI,EQ.RATIO= 1.442097

                 CHAMBER   THROAT     EXIT
 Pinf/P            1.0000   1.7287  5027.33
 P, BAR            10.000   5.7846  0.00199
 T, K             3091.97  2937.70   803.75
 RHO, KG/CU M    9.7521-1 6.0092-1 7.8697-4
 H, KJ/KG         -263.52  -807.44 -5337.66
 U, KJ/KG        -1288.94 -1770.06 -5590.41
 G, KJ/KG        -33898.6 -32764.2 -14081.0
 S, KJ/(KG)(K)    10.8782  10.8782  10.8782

 M, (1/n)          25.071   25.374   26.440
 (dLV/dLP)t      -1.02389 -1.01976 -1.00000
 (dLV/dLT)p        1.4986   1.4361   1.0000
 Cp, KJ/(KG)(K)    5.3237   5.0113   1.5674
 GAMMAs            1.1312   1.1301   1.2510
 SON VEL,M/SEC     1077.0   1043.0    562.3
 MACH NUMBER        0.000    1.000    5.665

 TRANSPORT PROPERTIES (GASES ONLY)
   CONDUCTIVITY IN UNITS OF MILLIWATTS/(CM)(K)

 VISC,MILLIPOISE  0.98204  0.94979  0.38140

  WITH EQUILIBRIUM REACTIONS

 Cp, KJ/(KG)(K)    5.3237   5.0113   1.5674
 CONDUCTIVITY     10.3995   9.1612   0.8556
 PRANDTL NUMBER    0.5027   0.5195   0.6987

  WITH FROZEN REACTIONS

 Cp, KJ/(KG)(K)    1.8083   1.8005   1.4333
 CONDUCTIVITY      2.6439   2.5233   0.7825
 PRANDTL NUMBER    0.6717   0.6777   0.6986

 PERFORMANCE PARAMETERS

 Ae/At                      1.0000   250.00
 CSTAR, M/SEC               1595.5   1595.5
 CF                         0.6537   1.9966
 Ivac, M/SEC                1965.9   3265.0
 Isp, M/SEC                 1043.0   3185.6


 MOLE FRACTIONS

 *CO              0.12477  0.11627  0.01906
 *CO2             0.10993  0.12127  0.22845
 *H               0.01359  0.01072  0.00000
 HO2              0.00002  0.00001  0.00000
 *H2              0.04266  0.03926  0.09476
 H2O              0.28512  0.29774  0.27651
 *NO              0.00997  0.00745  0.00000
 *N2              0.35648  0.36212  0.38121
 *O               0.00621  0.00431  0.00000
 *OH              0.03491  0.02788  0.00000
 *O2              0.01631  0.01297  0.00000

  * THERMODYNAMIC PROPERTIES FITTED TO 20000.K

 NOTE. WEIGHT FRACTION OF FUEL IN TOTAL FUELS AND OF OXIDANT IN TOTAL OXIDANTS





           THEORETICAL ROCKET PERFORMANCE ASSUMING FROZEN COMPOSITION
                                 AFTER POINT 3

 Pin =   145.0 PSIA
 CASE = L22_analise_nit

             REACTANT                    WT FRACTION      ENERGY      TEMP
                                          (SEE NOTE)     KJ/KG-MOL      K  
 FUEL        CH3NO2(L)                    1.0000000   -113100.000    298.150
 OXIDANT     N2O                          1.0000000     81671.539    300.000

 O/F=    0.75000  %FUEL= 57.142857  R,EQ.RATIO= 1.151258  PHI,EQ.RATIO= 1.442097

                 CHAMBER   THROAT     EXIT
 Pinf/P            1.0000   1.7287  5027.33
 P, BAR            10.000   5.7846  0.00199
 T, K             3091.97  2937.70   803.75
 RHO, KG/CU M    9.7521-1 6.0092-1 7.8697-4
 H, KJ/KG         -263.52  -807.44 -5337.66
 U, KJ/KG        -1288.94 -1770.06 -5590.41
 G, KJ/KG        -33898.6 -32764.2 -14081.0
 S, KJ/(KG)(K)    10.8782  10.8782  10.8782

 M, (1/n)          25.071   25.374   26.440
 Cp, KJ/(KG)(K)    5.3237   5.0113   1.5674
 GAMMAs            1.1312   1.1301   1.2510
 SON VEL,M/SEC     1077.0   1043.0    562.3
 MACH NUMBER        0.000    1.000    5.665

 TRANSPORT PROPERTIES (GASES ONLY)
   CONDUCTIVITY IN UNITS OF MILLIWATTS/(CM)(K)

 VISC,MILLIPOISE  0.98204  0.94979  0.38140

  WITH FROZEN REACTIONS

 Cp, KJ/(KG)(K)    1.8083   1.8005   1.4333
 CONDUCTIVITY      2.6439   2.5233   0.7825
 PRANDTL NUMBER    0.6717   0.6777   0.6986

 PERFORMANCE PARAMETERS

 Ae/At                      1.0000   250.00
 CSTAR, M/SEC               1595.5   1595.5
 CF                         0.6537   1.9966
 Ivac, M/SEC                1965.9   3265.0
 Isp, M/SEC                 1043.0   3185.6

 MOLE FRACTIONS

 *CO             0.13158   *CO2            0.11593   *H              0.01433
 HO2             0.00002   *H2             0.04499   H2O             0.30069
 *NO             0.01052   NO2             0.00001   *N2             0.37594
 *O              0.00655   *OH             0.03682   *O2             0.01720

  * THERMODYNAMIC PROPERTIES FITTED TO 20000.K

 NOTE. WEIGHT FRACTION OF FUEL IN TOTAL FUELS AND OF OXIDANT IN TOTAL OXIDANTS










              THEORETICAL ROCKET PERFORMANCE ASSUMING EQUILIBRIUM

           COMPOSITION DURING EXPANSION FROM INFINITE AREA COMBUSTOR

 Pin =   145.0 PSIA
 CASE = L22_analise_nit

             REACTANT                    WT FRACTION      ENERGY      TEMP
                                          (SEE NOTE)     KJ/KG-MOL      K  
 FUEL        CH3NO2(L)                    1.0000000   -113100.000    298.150
 OXIDANT     N2O                          1.0000000     81671.539    300.000

 O/F=    1.00000  %FUEL= 50.000000  R,EQ.RATIO= 1.033403  PHI,EQ.RATIO= 1.081572

                 CHAMBER   THROAT     EXIT
 Pinf/P            1.0000   1.7268  4546.23
 P, BAR            10.000   5.7910  0.00220
 T, K             3093.72  2943.44   929.45
 RHO, KG/CU M    1.0033 0 6.1819-1 7.9209-4
 H, KJ/KG          1.3744  -526.53 -5143.50
 U, KJ/KG         -995.38 -1463.29 -5421.20
 G, KJ/KG        -32827.4 -31760.6 -15006.3
 S, KJ/(KG)(K)    10.6114  10.6114  10.6114

 M, (1/n)          25.806   26.125   27.829
 (dLV/dLP)t      -1.02525 -1.02187 -1.00000
 (dLV/dLT)p        1.5270   1.4820   1.0000
 Cp, KJ/(KG)(K)    5.3706   5.1925   1.4503
 GAMMAs            1.1295   1.1271   1.2595
 SON VEL,M/SEC     1061.0   1027.5    591.4
 MACH NUMBER        0.000    1.000    5.424

 TRANSPORT PROPERTIES (GASES ONLY)
   CONDUCTIVITY IN UNITS OF MILLIWATTS/(CM)(K)

 VISC,MILLIPOISE  0.98420  0.95283  0.42784

  WITH EQUILIBRIUM REACTIONS

 Cp, KJ/(KG)(K)    5.3706   5.1925   1.4503
 CONDUCTIVITY     10.5713   9.6058   0.8156
 PRANDTL NUMBER    0.5000   0.5151   0.7608

  WITH FROZEN REACTIONS

 Cp, KJ/(KG)(K)    1.7472   1.7405   1.4203
 CONDUCTIVITY      2.5298   2.4193   0.7960
 PRANDTL NUMBER    0.6797   0.6855   0.7634

 PERFORMANCE PARAMETERS

 Ae/At                      1.0000   250.00
 CSTAR, M/SEC               1574.3   1574.3
 CF                         0.6527   2.0376
 Ivac, M/SEC                1939.2   3294.3
 Isp, M/SEC                 1027.5   3207.8


 MOLE FRACTIONS

 *CO              0.09548  0.08549  0.00664
 *CO2             0.11590  0.12851  0.22131
 *H               0.01117  0.00873  0.00000
 HO2              0.00004  0.00002  0.00000
 *H2              0.02856  0.02512  0.01915
 H2O              0.26310  0.27504  0.32278
 *NO              0.01452  0.01157  0.00000
 NO2              0.00001  0.00001  0.00000
 *N2              0.39159  0.39800  0.43012
 *O               0.00865  0.00647  0.00000
 *OH              0.03962  0.03292  0.00000
 *O2              0.03133  0.02811  0.00000

  * THERMODYNAMIC PROPERTIES FITTED TO 20000.K

 NOTE. WEIGHT FRACTION OF FUEL IN TOTAL FUELS AND OF OXIDANT IN TOTAL OXIDANTS





           THEORETICAL ROCKET PERFORMANCE ASSUMING FROZEN COMPOSITION
                                 AFTER POINT 3

 Pin =   145.0 PSIA
 CASE = L22_analise_nit

             REACTANT                    WT FRACTION      ENERGY      TEMP
                                          (SEE NOTE)     KJ/KG-MOL      K  
 FUEL        CH3NO2(L)                    1.0000000   -113100.000    298.150
 OXIDANT     N2O                          1.0000000     81671.539    300.000

 O/F=    1.00000  %FUEL= 50.000000  R,EQ.RATIO= 1.033403  PHI,EQ.RATIO= 1.081572

                 CHAMBER   THROAT     EXIT
 Pinf/P            1.0000   1.7268  4546.23
 P, BAR            10.000   5.7910  0.00220
 T, K             3093.72  2943.44   929.45
 RHO, KG/CU M    1.0033 0 6.1819-1 7.9209-4
 H, KJ/KG          1.3744  -526.53 -5143.50
 U, KJ/KG         -995.38 -1463.29 -5421.20
 G, KJ/KG        -32827.4 -31760.6 -15006.3
 S, KJ/(KG)(K)    10.6114  10.6114  10.6114

 M, (1/n)          25.806   26.125   27.829
 Cp, KJ/(KG)(K)    5.3706   5.1925   1.4503
 GAMMAs            1.1295   1.1271   1.2595
 SON VEL,M/SEC     1061.0   1027.5    591.4
 MACH NUMBER        0.000    1.000    5.424

 TRANSPORT PROPERTIES (GASES ONLY)
   CONDUCTIVITY IN UNITS OF MILLIWATTS/(CM)(K)

 VISC,MILLIPOISE  0.98420  0.95283  0.42784

  WITH FROZEN REACTIONS

 Cp, KJ/(KG)(K)    1.7472   1.7405   1.4203
 CONDUCTIVITY      2.5298   2.4193   0.7960
 PRANDTL NUMBER    0.6797   0.6855   0.7634

 PERFORMANCE PARAMETERS

 Ae/At                      1.0000   250.00
 CSTAR, M/SEC               1574.3   1574.3
 CF                         0.6527   2.0376
 Ivac, M/SEC                1939.2   3294.3
 Isp, M/SEC                 1027.5   3207.8

 MOLE FRACTIONS

 *CO             0.10297   *CO2            0.12499   *H              0.01205
 HO2             0.00004   *H2             0.03080   H2O             0.28371
 *N              0.00001   *NO             0.01565   NO2             0.00001
 *N2             0.42228   *O              0.00933   *OH             0.04273
 *O2             0.03379

  * THERMODYNAMIC PROPERTIES FITTED TO 20000.K

 NOTE. WEIGHT FRACTION OF FUEL IN TOTAL FUELS AND OF OXIDANT IN TOTAL OXIDANTS










              THEORETICAL ROCKET PERFORMANCE ASSUMING EQUILIBRIUM

           COMPOSITION DURING EXPANSION FROM INFINITE AREA COMBUSTOR

 Pin =   145.0 PSIA
 CASE = L22_analise_nit

             REACTANT                    WT FRACTION      ENERGY      TEMP
                                          (SEE NOTE)     KJ/KG-MOL      K  
 FUEL        CH3NO2(L)                    1.0000000   -113100.000    298.150
 OXIDANT     N2O                          1.0000000     81671.539    300.000

 O/F=    1.50000  %FUEL= 40.000000  R,EQ.RATIO= 0.857779  PHI,EQ.RATIO= 0.721048

                 CHAMBER   THROAT     EXIT
 Pinf/P            1.0000   1.7295  5129.02
 P, BAR            10.000   5.7820  0.00195
 T, K             3048.89  2893.43   785.39
 RHO, KG/CU M    1.0569 0 6.5139-1 8.4837-4
 H, KJ/KG          372.23  -129.89 -4363.95
 U, KJ/KG         -573.92 -1017.54 -4593.77
 G, KJ/KG        -30787.4 -29700.7 -12390.6
 S, KJ/(KG)(K)    10.2200  10.2200  10.2200

 M, (1/n)          26.793   27.103   28.415
 (dLV/dLP)t      -1.02110 -1.01761 -1.00000
 (dLV/dLT)p        1.4477   1.3956   1.0000
 Cp, KJ/(KG)(K)    4.7060   4.4685   1.3081
 GAMMAs            1.1326   1.1314   1.2881
 SON VEL,M/SEC     1035.2   1002.1    544.1
 MACH NUMBER        0.000    1.000    5.657

 TRANSPORT PROPERTIES (GASES ONLY)
   CONDUCTIVITY IN UNITS OF MILLIWATTS/(CM)(K)

 VISC,MILLIPOISE  0.97360  0.94042  0.37783

  WITH EQUILIBRIUM REACTIONS

 Cp, KJ/(KG)(K)    4.7060   4.4685   1.3081
 CONDUCTIVITY      9.0980   8.1233   0.6351
 PRANDTL NUMBER    0.5036   0.5173   0.7783

  WITH FROZEN REACTIONS

 Cp, KJ/(KG)(K)    1.6582   1.6516   1.3081
 CONDUCTIVITY      2.3360   2.2305   0.6350
 PRANDTL NUMBER    0.6911   0.6964   0.7783

 PERFORMANCE PARAMETERS

 Ae/At                      1.0000   250.00
 CSTAR, M/SEC               1531.9   1531.9
 CF                         0.6541   2.0090
 Ivac, M/SEC                1887.9   3152.4
 Isp, M/SEC                 1002.1   3077.7


 MOLE FRACTIONS

 *CO              0.05817  0.04794  0.00000
 *CO2             0.11741  0.12966  0.18620
 *H               0.00707  0.00516  0.00000
 HO2              0.00005  0.00003  0.00000
 *H2              0.01486  0.01212  0.00000
 H2O              0.22499  0.23512  0.27931
 *NO              0.02085  0.01713  0.00000
 NO2              0.00002  0.00001  0.00000
 *N2              0.44259  0.44970  0.48046
 *O               0.01063  0.00802  0.00000
 *OH              0.03990  0.03315  0.00000
 *O2              0.06345  0.06195  0.05403

  * THERMODYNAMIC PROPERTIES FITTED TO 20000.K

 NOTE. WEIGHT FRACTION OF FUEL IN TOTAL FUELS AND OF OXIDANT IN TOTAL OXIDANTS





           THEORETICAL ROCKET PERFORMANCE ASSUMING FROZEN COMPOSITION
                                 AFTER POINT 3

 Pin =   145.0 PSIA
 CASE = L22_analise_nit

             REACTANT                    WT FRACTION      ENERGY      TEMP
                                          (SEE NOTE)     KJ/KG-MOL      K  
 FUEL        CH3NO2(L)                    1.0000000   -113100.000    298.150
 OXIDANT     N2O                          1.0000000     81671.539    300.000

 O/F=    1.50000  %FUEL= 40.000000  R,EQ.RATIO= 0.857779  PHI,EQ.RATIO= 0.721048

                 CHAMBER   THROAT     EXIT
 Pinf/P            1.0000   1.7295  5129.02
 P, BAR            10.000   5.7820  0.00195
 T, K             3048.89  2893.43   785.39
 RHO, KG/CU M    1.0569 0 6.5139-1 8.4837-4
 H, KJ/KG          372.23  -129.89 -4363.95
 U, KJ/KG         -573.92 -1017.54 -4593.77
 G, KJ/KG        -30787.4 -29700.7 -12390.6
 S, KJ/(KG)(K)    10.2200  10.2200  10.2200

 M, (1/n)          26.793   27.103   28.415
 Cp, KJ/(KG)(K)    4.7060   4.4685   1.3081
 GAMMAs            1.1326   1.1314   1.2881
 SON VEL,M/SEC     1035.2   1002.1    544.1
 MACH NUMBER        0.000    1.000    5.657

 TRANSPORT PROPERTIES (GASES ONLY)
   CONDUCTIVITY IN UNITS OF MILLIWATTS/(CM)(K)

 VISC,MILLIPOISE  0.97360  0.94042  0.37783

  WITH FROZEN REACTIONS

 Cp, KJ/(KG)(K)    1.6582   1.6516   1.3081
 CONDUCTIVITY      2.3360   2.2305   0.6350
 PRANDTL NUMBER    0.6911   0.6964   0.7783

 PERFORMANCE PARAMETERS

 Ae/At                      1.0000   250.00
 CSTAR, M/SEC               1531.9   1531.9
 CF                         0.6541   2.0090
 Ivac, M/SEC                1887.9   3152.4
 Isp, M/SEC                 1002.1   3077.7

 MOLE FRACTIONS

 *CO             0.06169   *CO2            0.12451   *H              0.00750
 HO2             0.00005   *H2             0.01576   H2O             0.23861
 *NO             0.02211   NO2             0.00002   *N2             0.46939
 *O              0.01127   *OH             0.04231   *O2             0.06729

  * THERMODYNAMIC PROPERTIES FITTED TO 20000.K

 NOTE. WEIGHT FRACTION OF FUEL IN TOTAL FUELS AND OF OXIDANT IN TOTAL OXIDANTS










              THEORETICAL ROCKET PERFORMANCE ASSUMING EQUILIBRIUM

           COMPOSITION DURING EXPANSION FROM INFINITE AREA COMBUSTOR

 Pin =   145.0 PSIA
 CASE = L22_analise_nit

             REACTANT                    WT FRACTION      ENERGY      TEMP
                                          (SEE NOTE)     KJ/KG-MOL      K  
 FUEL        CH3NO2(L)                    1.0000000   -113100.000    298.150
 OXIDANT     N2O                          1.0000000     81671.539    300.000

 O/F=    2.00000  %FUEL= 33.333333  R,EQ.RATIO= 0.733178  PHI,EQ.RATIO= 0.540786

                 CHAMBER   THROAT     EXIT
 Pinf/P            1.0000   1.7349  5881.81
 P, BAR            10.000   5.7641  0.00170
 T, K             2986.37  2820.99   643.95
 RHO, KG/CU M    1.1041 0 6.8067-1 9.0706-4
 H, KJ/KG          619.46   136.85 -3728.78
 U, KJ/KG         -286.26  -709.98 -3916.21
 G, KJ/KG        -29084.2 -27921.8 -10133.8
 S, KJ/(KG)(K)     9.9464   9.9464   9.9464

 M, (1/n)          27.415   27.698   28.565
 (dLV/dLP)t      -1.01600 -1.01238 -1.00000
 (dLV/dLT)p        1.3475   1.2862   1.0000
 Cp, KJ/(KG)(K)    3.9981   3.6778   1.2220
 GAMMAs            1.1386   1.1398   1.3127
 SON VEL,M/SEC     1015.5    982.5    496.0
 MACH NUMBER        0.000    1.000    5.945

 TRANSPORT PROPERTIES (GASES ONLY)
   CONDUCTIVITY IN UNITS OF MILLIWATTS/(CM)(K)

 VISC,MILLIPOISE  0.95755  0.92147  0.32627

  WITH EQUILIBRIUM REACTIONS

 Cp, KJ/(KG)(K)    3.9981   3.6778   1.2220
 CONDUCTIVITY      7.3860   6.3297   0.5164
 PRANDTL NUMBER    0.5183   0.5354   0.7721

  WITH FROZEN REACTIONS

 Cp, KJ/(KG)(K)    1.5967   1.5895   1.2220
 CONDUCTIVITY      2.1866   2.0797   0.5164
 PRANDTL NUMBER    0.6992   0.7042   0.7721

 PERFORMANCE PARAMETERS

 Ae/At                      1.0000   250.00
 CSTAR, M/SEC               1495.4   1495.4
 CF                         0.6570   1.9721
 Ivac, M/SEC                1844.4   3012.5
 Isp, M/SEC                  982.5   2949.0


 MOLE FRACTIONS

 *CO              0.03689  0.02782  0.00000
 *CO2             0.11282  0.12344  0.15599
 *H               0.00447  0.00298  0.00000
 HO2              0.00006  0.00004  0.00000
 *H2              0.00868  0.00657  0.00000
 H2O              0.19568  0.20436  0.23399
 *NO              0.02432  0.01982  0.00000
 NO2              0.00003  0.00002  0.00000
 *N2              0.47793  0.48524  0.51068
 *O               0.01040  0.00750  0.00000
 *OH              0.03587  0.02889  0.00000
 *O2              0.09284  0.09333  0.09935

  * THERMODYNAMIC PROPERTIES FITTED TO 20000.K

 NOTE. WEIGHT FRACTION OF FUEL IN TOTAL FUELS AND OF OXIDANT IN TOTAL OXIDANTS





           THEORETICAL ROCKET PERFORMANCE ASSUMING FROZEN COMPOSITION
                                 AFTER POINT 3

 Pin =   145.0 PSIA
 CASE = L22_analise_nit

             REACTANT                    WT FRACTION      ENERGY      TEMP
                                          (SEE NOTE)     KJ/KG-MOL      K  
 FUEL        CH3NO2(L)                    1.0000000   -113100.000    298.150
 OXIDANT     N2O                          1.0000000     81671.539    300.000

 O/F=    2.00000  %FUEL= 33.333333  R,EQ.RATIO= 0.733178  PHI,EQ.RATIO= 0.540786

                 CHAMBER   THROAT     EXIT
 Pinf/P            1.0000   1.7349  5881.81
 P, BAR            10.000   5.7641  0.00170
 T, K             2986.37  2820.99   643.95
 RHO, KG/CU M    1.1041 0 6.8067-1 9.0706-4
 H, KJ/KG          619.46   136.85 -3728.78
 U, KJ/KG         -286.26  -709.98 -3916.21
 G, KJ/KG        -29084.2 -27921.8 -10133.8
 S, KJ/(KG)(K)     9.9464   9.9464   9.9464

 M, (1/n)          27.415   27.698   28.565
 Cp, KJ/(KG)(K)    3.9981   3.6778   1.2220
 GAMMAs            1.1386   1.1398   1.3127
 SON VEL,M/SEC     1015.5    982.5    496.0
 MACH NUMBER        0.000    1.000    5.945

 TRANSPORT PROPERTIES (GASES ONLY)
   CONDUCTIVITY IN UNITS OF MILLIWATTS/(CM)(K)

 VISC,MILLIPOISE  0.95755  0.92147  0.32627

  WITH FROZEN REACTIONS

 Cp, KJ/(KG)(K)    1.5967   1.5895   1.2220
 CONDUCTIVITY      2.1866   2.0797   0.5164
 PRANDTL NUMBER    0.6992   0.7042   0.7721

 PERFORMANCE PARAMETERS

 Ae/At                      1.0000   250.00
 CSTAR, M/SEC               1495.4   1495.4
 CF                         0.6570   1.9721
 Ivac, M/SEC                1844.4   3012.5
 Isp, M/SEC                  982.5   2949.0

 MOLE FRACTIONS

 *CO             0.03844   *CO2            0.11755   *H              0.00465
 HO2             0.00006   *H2             0.00904   H2O             0.20389
 *NO             0.02534   NO2             0.00003   *N2             0.49798
 *O              0.01084   *OH             0.03738   *O2             0.09674

  * THERMODYNAMIC PROPERTIES FITTED TO 20000.K

 NOTE. WEIGHT FRACTION OF FUEL IN TOTAL FUELS AND OF OXIDANT IN TOTAL OXIDANTS










              THEORETICAL ROCKET PERFORMANCE ASSUMING EQUILIBRIUM

           COMPOSITION DURING EXPANSION FROM INFINITE AREA COMBUSTOR

 Pin =   145.0 PSIA
 CASE = L22_analise_nit

             REACTANT                    WT FRACTION      ENERGY      TEMP
                                          (SEE NOTE)     KJ/KG-MOL      K  
 FUEL        CH3NO2(L)                    1.0000000   -113100.000    298.150
 OXIDANT     N2O                          1.0000000     81671.539    300.000

 O/F=    2.50000  %FUEL= 28.571429  R,EQ.RATIO= 0.640184  PHI,EQ.RATIO= 0.432629

                 CHAMBER   THROAT     EXIT
 Pinf/P            1.0000   1.7413  6511.53
 P, BAR            10.000   5.7429  0.00154
 T, K             2921.89  2745.34   551.71
 RHO, KG/CU M    1.1456 0 7.0654-1 9.5996-4
 H, KJ/KG          796.06   328.73 -3254.69
 U, KJ/KG         -76.828  -484.09 -3414.67
 G, KJ/KG        -27674.3 -26421.3 -8630.44
 S, KJ/(KG)(K)     9.7438   9.7438   9.7438

 M, (1/n)          27.832   28.083   28.674
 (dLV/dLP)t      -1.01197 -1.00852 -1.00000
 (dLV/dLT)p        1.2664   1.2032   1.0000
 Cp, KJ/(KG)(K)    3.4435   3.0863   1.1665
 GAMMAs            1.1457   1.1499   1.3308
 SON VEL,M/SEC     1000.0    966.8    461.4
 MACH NUMBER        0.000    1.000    6.169

 TRANSPORT PROPERTIES (GASES ONLY)
   CONDUCTIVITY IN UNITS OF MILLIWATTS/(CM)(K)

 VISC,MILLIPOISE  0.94098  0.90182  0.29132

  WITH EQUILIBRIUM REACTIONS

 Cp, KJ/(KG)(K)    3.4435   3.0863   1.1665
 CONDUCTIVITY      6.0330   4.9772   0.4446
 PRANDTL NUMBER    0.5371   0.5592   0.7644

  WITH FROZEN REACTIONS

 Cp, KJ/(KG)(K)    1.5515   1.5433   1.1665
 CONDUCTIVITY      2.0695   1.9593   0.4446
 PRANDTL NUMBER    0.7054   0.7103   0.7644

 PERFORMANCE PARAMETERS

 Ae/At                      1.0000   250.00
 CSTAR, M/SEC               1464.0   1464.0
 CF                         0.6604   1.9442
 Ivac, M/SEC                1807.5   2902.5
 Isp, M/SEC                  966.8   2846.3


 MOLE FRACTIONS

 *CO              0.02414  0.01656  0.00000
 *CO2             0.10614  0.11489  0.13421
 *H               0.00288  0.00173  0.00000
 HO2              0.00006  0.00004  0.00000
 *H2              0.00544  0.00381  0.00000
 H2O              0.17296  0.18048  0.20132
 *NO              0.02598  0.02075  0.00000
 NO2              0.00004  0.00003  0.00000
 *N2              0.50381  0.51109  0.53245
 *O               0.00934  0.00631  0.00000
 *OH              0.03108  0.02400  0.00000
 *O2              0.11813  0.12032  0.13201

  * THERMODYNAMIC PROPERTIES FITTED TO 20000.K

 NOTE. WEIGHT FRACTION OF FUEL IN TOTAL FUELS AND OF OXIDANT IN TOTAL OXIDANTS





           THEORETICAL ROCKET PERFORMANCE ASSUMING FROZEN COMPOSITION
                                 AFTER POINT 3

 Pin =   145.0 PSIA
 CASE = L22_analise_nit

             REACTANT                    WT FRACTION      ENERGY      TEMP
                                          (SEE NOTE)     KJ/KG-MOL      K  
 FUEL        CH3NO2(L)                    1.0000000   -113100.000    298.150
 OXIDANT     N2O                          1.0000000     81671.539    300.000

 O/F=    2.50000  %FUEL= 28.571429  R,EQ.RATIO= 0.640184  PHI,EQ.RATIO= 0.432629

                 CHAMBER   THROAT     EXIT
 Pinf/P            1.0000   1.7413  6511.53
 P, BAR            10.000   5.7429  0.00154
 T, K             2921.89  2745.34   551.71
 RHO, KG/CU M    1.1456 0 7.0654-1 9.5996-4
 H, KJ/KG          796.06   328.73 -3254.69
 U, KJ/KG         -76.828  -484.09 -3414.67
 G, KJ/KG        -27674.3 -26421.3 -8630.44
 S, KJ/(KG)(K)     9.7438   9.7438   9.7438

 M, (1/n)          27.832   28.083   28.674
 Cp, KJ/(KG)(K)    3.4435   3.0863   1.1665
 GAMMAs            1.1457   1.1499   1.3308
 SON VEL,M/SEC     1000.0    966.8    461.4
 MACH NUMBER        0.000    1.000    6.169

 TRANSPORT PROPERTIES (GASES ONLY)
   CONDUCTIVITY IN UNITS OF MILLIWATTS/(CM)(K)

 VISC,MILLIPOISE  0.94098  0.90182  0.29132

  WITH FROZEN REACTIONS

 Cp, KJ/(KG)(K)    1.5515   1.5433   1.1665
 CONDUCTIVITY      2.0695   1.9593   0.4446
 PRANDTL NUMBER    0.7054   0.7103   0.7644

 PERFORMANCE PARAMETERS

 Ae/At                      1.0000   250.00
 CSTAR, M/SEC               1464.0   1464.0
 CF                         0.6604   1.9442
 Ivac, M/SEC                1807.5   2902.5
 Isp, M/SEC                  966.8   2846.3

 MOLE FRACTIONS

 *CO             0.02487   *CO2            0.10935   *H              0.00297
 HO2             0.00006   *H2             0.00560   H2O             0.17819
 *NO             0.02676   NO2             0.00004   *N2             0.51905
 *O              0.00962   *OH             0.03202   *O2             0.12170

  * THERMODYNAMIC PROPERTIES FITTED TO 20000.K

 NOTE. WEIGHT FRACTION OF FUEL IN TOTAL FUELS AND OF OXIDANT IN TOTAL OXIDANTS










              THEORETICAL ROCKET PERFORMANCE ASSUMING EQUILIBRIUM

           COMPOSITION DURING EXPANSION FROM INFINITE AREA COMBUSTOR

 Pin =   145.0 PSIA
 CASE = L22_analise_nit

             REACTANT                    WT FRACTION      ENERGY      TEMP
                                          (SEE NOTE)     KJ/KG-MOL      K  
 FUEL        CH3NO2(L)                    1.0000000   -113100.000    298.150
 OXIDANT     N2O                          1.0000000     81671.539    300.000

 O/F=    3.00000  %FUEL= 25.000000  R,EQ.RATIO= 0.568126  PHI,EQ.RATIO= 0.360524

                 CHAMBER   THROAT     EXIT
 Pinf/P            1.0000   1.7480  7042.66
 P, BAR            10.000   5.7208  0.00142
 T, K             2859.91  2672.27   487.36
 RHO, KG/CU M    1.1827 0 7.2973-1 1.0076-3
 H, KJ/KG          928.50   473.59 -2889.09
 U, KJ/KG          82.991  -310.36 -3030.01
 G, KJ/KG        -26490.2 -25146.1 -7561.57
 S, KJ/(KG)(K)     9.5872   9.5872   9.5872

 M, (1/n)          28.124   28.342   28.755
 (dLV/dLP)t      -1.00902 -1.00591 -1.00000
 (dLV/dLT)p        1.2057   1.1454   1.0000
 Cp, KJ/(KG)(K)    3.0283   2.6674   1.1292
 GAMMAs            1.1533   1.1606   1.3442
 SON VEL,M/SEC      987.5    953.9    435.2
 MACH NUMBER        0.000    1.000    6.349

 TRANSPORT PROPERTIES (GASES ONLY)
   CONDUCTIVITY IN UNITS OF MILLIWATTS/(CM)(K)

 VISC,MILLIPOISE  0.92519  0.88307  0.26610

  WITH EQUILIBRIUM REACTIONS

 Cp, KJ/(KG)(K)    3.0283   2.6674   1.1292
 CONDUCTIVITY      5.0327   4.0337   0.3968
 PRANDTL NUMBER    0.5567   0.5840   0.7572

  WITH FROZEN REACTIONS

 Cp, KJ/(KG)(K)    1.5166   1.5075   1.1292
 CONDUCTIVITY      1.9753   1.8613   0.3968
 PRANDTL NUMBER    0.7104   0.7152   0.7572

 PERFORMANCE PARAMETERS

 Ae/At                      1.0000   250.00
 CSTAR, M/SEC               1436.7   1436.7
 CF                         0.6639   1.9233
 Ivac, M/SEC                1775.7   2814.2
 Isp, M/SEC                  953.8   2763.2


 MOLE FRACTIONS

 *CO              0.01623  0.01011  0.00000
 *CO2             0.09896  0.10597  0.11777
 *H               0.00191  0.00103  0.00000
 HO2              0.00005  0.00003  0.00000
 *H2              0.00358  0.00231  0.00000
 H2O              0.15492  0.16148  0.17666
 *NO              0.02654  0.02067  0.00000
 NO2              0.00004  0.00003  0.00000
 *N2              0.52353  0.53064  0.54889
 *O               0.00808  0.00507  0.00000
 *OH              0.02659  0.01959  0.00000
 *O2              0.13956  0.14306  0.15667

  * THERMODYNAMIC PROPERTIES FITTED TO 20000.K

 NOTE. WEIGHT FRACTION OF FUEL IN TOTAL FUELS AND OF OXIDANT IN TOTAL OXIDANTS





           THEORETICAL ROCKET PERFORMANCE ASSUMING FROZEN COMPOSITION
                                 AFTER POINT 3

 Pin =   145.0 PSIA
 CASE = L22_analise_nit

             REACTANT                    WT FRACTION      ENERGY      TEMP
                                          (SEE NOTE)     KJ/KG-MOL      K  
 FUEL        CH3NO2(L)                    1.0000000   -113100.000    298.150
 OXIDANT     N2O                          1.0000000     81671.539    300.000

 O/F=    3.00000  %FUEL= 25.000000  R,EQ.RATIO= 0.568126  PHI,EQ.RATIO= 0.360524

                 CHAMBER   THROAT     EXIT
 Pinf/P            1.0000   1.7480  7042.66
 P, BAR            10.000   5.7208  0.00142
 T, K             2859.91  2672.27   487.36
 RHO, KG/CU M    1.1827 0 7.2973-1 1.0076-3
 H, KJ/KG          928.50   473.59 -2889.09
 U, KJ/KG          82.991  -310.36 -3030.01
 G, KJ/KG        -26490.2 -25146.1 -7561.57
 S, KJ/(KG)(K)     9.5872   9.5872   9.5872

 M, (1/n)          28.124   28.342   28.755
 Cp, KJ/(KG)(K)    3.0283   2.6674   1.1292
 GAMMAs            1.1533   1.1606   1.3442
 SON VEL,M/SEC      987.5    953.9    435.2
 MACH NUMBER        0.000    1.000    6.349

 TRANSPORT PROPERTIES (GASES ONLY)
   CONDUCTIVITY IN UNITS OF MILLIWATTS/(CM)(K)

 VISC,MILLIPOISE  0.92519  0.88307  0.26610

  WITH FROZEN REACTIONS

 Cp, KJ/(KG)(K)    1.5166   1.5075   1.1292
 CONDUCTIVITY      1.9753   1.8613   0.3968
 PRANDTL NUMBER    0.7104   0.7152   0.7572

 PERFORMANCE PARAMETERS

 Ae/At                      1.0000   250.00
 CSTAR, M/SEC               1436.7   1436.7
 CF                         0.6639   1.9233
 Ivac, M/SEC                1775.7   2814.2
 Isp, M/SEC                  953.8   2763.2

 MOLE FRACTIONS

 *CO             0.01659   *CO2            0.10118   *H              0.00195
 HO2             0.00006   *H2             0.00366   H2O             0.15840
 *NO             0.02713   NO2             0.00005   *N2             0.53530
 *O              0.00826   *OH             0.02719   *O2             0.14270

  * THERMODYNAMIC PROPERTIES FITTED TO 20000.K

 NOTE. WEIGHT FRACTION OF FUEL IN TOTAL FUELS AND OF OXIDANT IN TOTAL OXIDANTS










              THEORETICAL ROCKET PERFORMANCE ASSUMING EQUILIBRIUM

           COMPOSITION DURING EXPANSION FROM INFINITE AREA COMBUSTOR

 Pin =   145.0 PSIA
 CASE = L22_analise_nit

             REACTANT                    WT FRACTION      ENERGY      TEMP
                                          (SEE NOTE)     KJ/KG-MOL      K  
 FUEL        CH3NO2(L)                    1.0000000   -113100.000    298.150
 OXIDANT     N2O                          1.0000000     81671.539    300.000

 O/F=    3.50000  %FUEL= 22.222222  R,EQ.RATIO= 0.510647  PHI,EQ.RATIO= 0.309021

                 CHAMBER   THROAT     EXIT
 Pinf/P            1.0000   1.7547  7491.89
 P, BAR            10.000   5.6991  0.00133
 T, K             2801.96  2604.06   440.31
 RHO, KG/CU M    1.2162 0 7.5075-1 1.0508-3
 H, KJ/KG         1031.52   587.02 -2599.16
 U, KJ/KG          209.29  -172.10 -2726.19
 G, KJ/KG        -25481.5 -24053.4 -6765.50
 S, KJ/(KG)(K)     9.4623   9.4623   9.4623

 M, (1/n)          28.334   28.522   28.819
 (dLV/dLP)t      -1.00689 -1.00417 -1.00000
 (dLV/dLT)p        1.1609   1.1058   1.0000
 Cp, KJ/(KG)(K)    2.7183   2.3721   1.1031
 GAMMAs            1.1609   1.1711   1.3542
 SON VEL,M/SEC      977.0    942.9    414.8
 MACH NUMBER        0.000    1.000    6.497

 TRANSPORT PROPERTIES (GASES ONLY)
   CONDUCTIVITY IN UNITS OF MILLIWATTS/(CM)(K)

 VISC,MILLIPOISE  0.91056  0.86574  0.24713

  WITH EQUILIBRIUM REACTIONS

 Cp, KJ/(KG)(K)    2.7183   2.3721   1.1031
 CONDUCTIVITY      4.2990   3.3815   0.3630
 PRANDTL NUMBER    0.5758   0.6073   0.7510

  WITH FROZEN REACTIONS

 Cp, KJ/(KG)(K)    1.4890   1.4789   1.1031
 CONDUCTIVITY      1.8978   1.7801   0.3630
 PRANDTL NUMBER    0.7144   0.7193   0.7510

 PERFORMANCE PARAMETERS

 Ae/At                      1.0000   250.00
 CSTAR, M/SEC               1412.7   1412.7
 CF                         0.6674   1.9075
 Ivac, M/SEC                1748.0   2741.8
 Isp, M/SEC                  942.9   2694.7


 MOLE FRACTIONS

 *CO              0.01118  0.00633  0.00000
 *CO2             0.09197  0.09751  0.10492
 *H               0.00129  0.00063  0.00000
 HO2              0.00005  0.00003  0.00000
 *H2              0.00245  0.00146  0.00000
 H2O              0.14026  0.14600  0.15738
 *NO              0.02644  0.02004  0.00000
 NO2              0.00005  0.00003  0.00000
 *N2              0.53903  0.54591  0.56175
 *O               0.00687  0.00400  0.00000
 *OH              0.02270  0.01593  0.00000
 *O2              0.15770  0.16213  0.17595

  * THERMODYNAMIC PROPERTIES FITTED TO 20000.K

 NOTE. WEIGHT FRACTION OF FUEL IN TOTAL FUELS AND OF OXIDANT IN TOTAL OXIDANTS





           THEORETICAL ROCKET PERFORMANCE ASSUMING FROZEN COMPOSITION
                                 AFTER POINT 3

 Pin =   145.0 PSIA
 CASE = L22_analise_nit

             REACTANT                    WT FRACTION      ENERGY      TEMP
                                          (SEE NOTE)     KJ/KG-MOL      K  
 FUEL        CH3NO2(L)                    1.0000000   -113100.000    298.150
 OXIDANT     N2O                          1.0000000     81671.539    300.000

 O/F=    3.50000  %FUEL= 22.222222  R,EQ.RATIO= 0.510647  PHI,EQ.RATIO= 0.309021

                 CHAMBER   THROAT     EXIT
 Pinf/P            1.0000   1.7547  7491.89
 P, BAR            10.000   5.6991  0.00133
 T, K             2801.96  2604.06   440.31
 RHO, KG/CU M    1.2162 0 7.5075-1 1.0508-3
 H, KJ/KG         1031.52   587.02 -2599.16
 U, KJ/KG          209.29  -172.10 -2726.19
 G, KJ/KG        -25481.5 -24053.4 -6765.50
 S, KJ/(KG)(K)     9.4623   9.4623   9.4623

 M, (1/n)          28.334   28.522   28.819
 Cp, KJ/(KG)(K)    2.7183   2.3721   1.1031
 GAMMAs            1.1609   1.1711   1.3542
 SON VEL,M/SEC      977.0    942.9    414.8
 MACH NUMBER        0.000    1.000    6.497

 TRANSPORT PROPERTIES (GASES ONLY)
   CONDUCTIVITY IN UNITS OF MILLIWATTS/(CM)(K)

 VISC,MILLIPOISE  0.91056  0.86574  0.24713

  WITH FROZEN REACTIONS

 Cp, KJ/(KG)(K)    1.4890   1.4789   1.1031
 CONDUCTIVITY      1.8978   1.7801   0.3630
 PRANDTL NUMBER    0.7144   0.7193   0.7510

 PERFORMANCE PARAMETERS

 Ae/At                      1.0000   250.00
 CSTAR, M/SEC               1412.7   1412.7
 CF                         0.6674   1.9075
 Ivac, M/SEC                1748.0   2741.8
 Isp, M/SEC                  942.9   2694.7

 MOLE FRACTIONS

 *CO             0.01137   *CO2            0.09355   *H              0.00131
 HO2             0.00005   *H2             0.00249   H2O             0.14266
 *NO             0.02690   NO2             0.00005   *N2             0.54827
 *O              0.00699   *OH             0.02309   *O2             0.16041

  * THERMODYNAMIC PROPERTIES FITTED TO 20000.K

 NOTE. WEIGHT FRACTION OF FUEL IN TOTAL FUELS AND OF OXIDANT IN TOTAL OXIDANTS










              THEORETICAL ROCKET PERFORMANCE ASSUMING EQUILIBRIUM

           COMPOSITION DURING EXPANSION FROM INFINITE AREA COMBUSTOR

 Pin =   145.0 PSIA
 CASE = L22_analise_nit

             REACTANT                    WT FRACTION      ENERGY      TEMP
                                          (SEE NOTE)     KJ/KG-MOL      K  
 FUEL        CH3NO2(L)                    1.0000000   -113100.000    298.150
 OXIDANT     N2O                          1.0000000     81671.539    300.000

 O/F=    4.00000  %FUEL= 20.000000  R,EQ.RATIO= 0.463731  PHI,EQ.RATIO= 0.270393

                 CHAMBER   THROAT     EXIT
 Pinf/P            1.0000   1.7608  7874.00
 P, BAR            10.000   5.6791  0.00127
 T, K             2748.49  2541.58   404.61
 RHO, KG/CU M    1.2467 0 7.6999-1 1.0899-3
 H, KJ/KG         1113.93   678.43 -2363.86
 U, KJ/KG          311.80  -59.129 -2480.39
 G, KJ/KG        -24612.1 -23111.0 -6151.06
 S, KJ/(KG)(K)     9.3601   9.3601   9.3601

 M, (1/n)          28.490   28.651   28.871
 (dLV/dLP)t      -1.00536 -1.00302 -1.00000
 (dLV/dLT)p        1.1278   1.0787   1.0000
 Cp, KJ/(KG)(K)    2.4846   2.1614   1.0843
 GAMMAs            1.1683   1.1809   1.3617
 SON VEL,M/SEC      968.0    933.3    398.3
 MACH NUMBER        0.000    1.000    6.621

 TRANSPORT PROPERTIES (GASES ONLY)
   CONDUCTIVITY IN UNITS OF MILLIWATTS/(CM)(K)

 VISC,MILLIPOISE  0.89717  0.85000  0.23236

  WITH EQUILIBRIUM REACTIONS

 Cp, KJ/(KG)(K)    2.4846   2.1614   1.0843
 CONDUCTIVITY      3.7560   2.9251   0.3379
 PRANDTL NUMBER    0.5935   0.6281   0.7457

  WITH FROZEN REACTIONS

 Cp, KJ/(KG)(K)    1.4664   1.4554   1.0843
 CONDUCTIVITY      1.8329   1.7119   0.3379
 PRANDTL NUMBER    0.7178   0.7226   0.7457

 PERFORMANCE PARAMETERS

 Ae/At                      1.0000   250.00
 CSTAR, M/SEC               1391.6   1391.6
 CF                         0.6707   1.8952
 Ivac, M/SEC                1723.6   2681.5
 Isp, M/SEC                  933.3   2637.3


 MOLE FRACTIONS

 *CO              0.00789  0.00408  0.00000
 *CO2             0.08546  0.08980  0.09460
 *H               0.00090  0.00039  0.00000
 HO2              0.00005  0.00003  0.00000
 *H2              0.00173  0.00096  0.00000
 H2O              0.12810  0.13315  0.14189
 *NO              0.02597  0.01915  0.00000
 NO2              0.00005  0.00004  0.00000
 *N2              0.55150  0.55812  0.57207
 *O               0.00581  0.00314  0.00000
 *OH              0.01943  0.01299  0.00000
 *O2              0.17311  0.17815  0.19144

  * THERMODYNAMIC PROPERTIES FITTED TO 20000.K

 NOTE. WEIGHT FRACTION OF FUEL IN TOTAL FUELS AND OF OXIDANT IN TOTAL OXIDANTS





           THEORETICAL ROCKET PERFORMANCE ASSUMING FROZEN COMPOSITION
                                 AFTER POINT 3

 Pin =   145.0 PSIA
 CASE = L22_analise_nit

             REACTANT                    WT FRACTION      ENERGY      TEMP
                                          (SEE NOTE)     KJ/KG-MOL      K  
 FUEL        CH3NO2(L)                    1.0000000   -113100.000    298.150
 OXIDANT     N2O                          1.0000000     81671.539    300.000

 O/F=    4.00000  %FUEL= 20.000000  R,EQ.RATIO= 0.463731  PHI,EQ.RATIO= 0.270393

                 CHAMBER   THROAT     EXIT
 Pinf/P            1.0000   1.7608  7874.00
 P, BAR            10.000   5.6791  0.00127
 T, K             2748.49  2541.58   404.61
 RHO, KG/CU M    1.2467 0 7.6999-1 1.0899-3
 H, KJ/KG         1113.93   678.43 -2363.86
 U, KJ/KG          311.80  -59.129 -2480.39
 G, KJ/KG        -24612.1 -23111.0 -6151.06
 S, KJ/(KG)(K)     9.3601   9.3601   9.3601

 M, (1/n)          28.490   28.651   28.871
 Cp, KJ/(KG)(K)    2.4846   2.1614   1.0843
 GAMMAs            1.1683   1.1809   1.3617
 SON VEL,M/SEC      968.0    933.3    398.3
 MACH NUMBER        0.000    1.000    6.621

 TRANSPORT PROPERTIES (GASES ONLY)
   CONDUCTIVITY IN UNITS OF MILLIWATTS/(CM)(K)

 VISC,MILLIPOISE  0.89717  0.85000  0.23236

  WITH FROZEN REACTIONS

 Cp, KJ/(KG)(K)    1.4664   1.4554   1.0843
 CONDUCTIVITY      1.8329   1.7119   0.3379
 PRANDTL NUMBER    0.7178   0.7226   0.7457

 PERFORMANCE PARAMETERS

 Ae/At                      1.0000   250.00
 CSTAR, M/SEC               1391.6   1391.6
 CF                         0.6707   1.8952
 Ivac, M/SEC                1723.6   2681.5
 Isp, M/SEC                  933.3   2637.3

 MOLE FRACTIONS

 *CO             0.00800   *CO2            0.08660   *H              0.00091
 HO2             0.00005   *H2             0.00175   H2O             0.12982
 *NO             0.02632   NO2             0.00005   *N2             0.55888
 *O              0.00589   *OH             0.01969   *O2             0.17542

  * THERMODYNAMIC PROPERTIES FITTED TO 20000.K

 NOTE. WEIGHT FRACTION OF FUEL IN TOTAL FUELS AND OF OXIDANT IN TOTAL OXIDANTS










              THEORETICAL ROCKET PERFORMANCE ASSUMING EQUILIBRIUM

           COMPOSITION DURING EXPANSION FROM INFINITE AREA COMBUSTOR

 Pin =   145.0 PSIA
 CASE = L22_analise_nit

             REACTANT                    WT FRACTION      ENERGY      TEMP
                                          (SEE NOTE)     KJ/KG-MOL      K  
 FUEL        CH3NO2(L)                    1.0000000   -113100.000    298.150
 OXIDANT     N2O                          1.0000000     81671.539    300.000

 O/F=    4.50000  %FUEL= 18.181818  R,EQ.RATIO= 0.424710  PHI,EQ.RATIO= 0.240349

                 CHAMBER   THROAT     EXIT
 Pinf/P            1.0000   1.7664  8201.38
 P, BAR            10.000   5.6612  0.00122
 T, K             2699.51  2484.95   376.71
 RHO, KG/CU M    1.2746 0 7.8767-1 1.1255-3
 H, KJ/KG         1181.36   753.77 -2169.24
 U, KJ/KG          396.79   35.046 -2277.57
 G, KJ/KG        -23855.9 -22293.5 -5663.15
 S, KJ/(KG)(K)     9.2747   9.2747   9.2747

 M, (1/n)          28.608   28.747   28.913
 (dLV/dLP)t      -1.00424 -1.00224 -1.00000
 (dLV/dLT)p        1.1032   1.0599   1.0000
 Cp, KJ/(KG)(K)    2.3061   2.0082   1.0703
 GAMMAs            1.1753   1.1899   1.3674
 SON VEL,M/SEC      960.3    924.8    384.9
 MACH NUMBER        0.000    1.000    6.726

 TRANSPORT PROPERTIES (GASES ONLY)
   CONDUCTIVITY IN UNITS OF MILLIWATTS/(CM)(K)

 VISC,MILLIPOISE  0.88500  0.83580  0.22057

  WITH EQUILIBRIUM REACTIONS

 Cp, KJ/(KG)(K)    2.3061   2.0082   1.0703
 CONDUCTIVITY      3.3481   2.5989   0.3185
 PRANDTL NUMBER    0.6096   0.6458   0.7413

  WITH FROZEN REACTIONS

 Cp, KJ/(KG)(K)    1.4475   1.4358   1.0703
 CONDUCTIVITY      1.7778   1.6542   0.3185
 PRANDTL NUMBER    0.7206   0.7255   0.7413

 PERFORMANCE PARAMETERS

 Ae/At                      1.0000   250.00
 CSTAR, M/SEC               1372.9   1372.9
 CF                         0.6736   1.8856
 Ivac, M/SEC                1702.0   2630.5
 Isp, M/SEC                  924.8   2588.7


 MOLE FRACTIONS

 *CO              0.00569  0.00270  0.00000
 *CO2             0.07952  0.08293  0.08612
 *H               0.00064  0.00025  0.00000
 HO2              0.00004  0.00002  0.00000
 *H2              0.00126  0.00065  0.00000
 H2O              0.11786  0.12232  0.12918
 *NO              0.02529  0.01816  0.00000
 NO2              0.00006  0.00004  0.00000
 *N2              0.56174  0.56811  0.58054
 *O               0.00492  0.00247  0.00000
 *OH              0.01672  0.01068  0.00000
 *O2              0.18626  0.19167  0.20415

  * THERMODYNAMIC PROPERTIES FITTED TO 20000.K

 NOTE. WEIGHT FRACTION OF FUEL IN TOTAL FUELS AND OF OXIDANT IN TOTAL OXIDANTS





           THEORETICAL ROCKET PERFORMANCE ASSUMING FROZEN COMPOSITION
                                 AFTER POINT 3

 Pin =   145.0 PSIA
 CASE = L22_analise_nit

             REACTANT                    WT FRACTION      ENERGY      TEMP
                                          (SEE NOTE)     KJ/KG-MOL      K  
 FUEL        CH3NO2(L)                    1.0000000   -113100.000    298.150
 OXIDANT     N2O                          1.0000000     81671.539    300.000

 O/F=    4.50000  %FUEL= 18.181818  R,EQ.RATIO= 0.424710  PHI,EQ.RATIO= 0.240349

                 CHAMBER   THROAT     EXIT
 Pinf/P            1.0000   1.7664  8201.38
 P, BAR            10.000   5.6612  0.00122
 T, K             2699.51  2484.95   376.71
 RHO, KG/CU M    1.2746 0 7.8767-1 1.1255-3
 H, KJ/KG         1181.36   753.77 -2169.24
 U, KJ/KG          396.79   35.046 -2277.57
 G, KJ/KG        -23855.9 -22293.5 -5663.15
 S, KJ/(KG)(K)     9.2747   9.2747   9.2747

 M, (1/n)          28.608   28.747   28.913
 Cp, KJ/(KG)(K)    2.3061   2.0082   1.0703
 GAMMAs            1.1753   1.1899   1.3674
 SON VEL,M/SEC      960.3    924.8    384.9
 MACH NUMBER        0.000    1.000    6.726

 TRANSPORT PROPERTIES (GASES ONLY)
   CONDUCTIVITY IN UNITS OF MILLIWATTS/(CM)(K)

 VISC,MILLIPOISE  0.88500  0.83580  0.22057

  WITH FROZEN REACTIONS

 Cp, KJ/(KG)(K)    1.4475   1.4358   1.0703
 CONDUCTIVITY      1.7778   1.6542   0.3185
 PRANDTL NUMBER    0.7206   0.7255   0.7413

 PERFORMANCE PARAMETERS

 Ae/At                      1.0000   250.00
 CSTAR, M/SEC               1372.9   1372.9
 CF                         0.6736   1.8856
 Ivac, M/SEC                1702.0   2630.5
 Isp, M/SEC                  924.8   2588.7

 MOLE FRACTIONS

 *CO             0.00575   *CO2            0.08037   *H              0.00064
 HO2             0.00004   *H2             0.00127   H2O             0.11912
 *NO             0.02556   NO2             0.00006   *N2             0.56773
 *O              0.00497   *OH             0.01690   *O2             0.18824

  * THERMODYNAMIC PROPERTIES FITTED TO 20000.K

 NOTE. WEIGHT FRACTION OF FUEL IN TOTAL FUELS AND OF OXIDANT IN TOTAL OXIDANTS










              THEORETICAL ROCKET PERFORMANCE ASSUMING EQUILIBRIUM

           COMPOSITION DURING EXPANSION FROM INFINITE AREA COMBUSTOR

 Pin =   145.0 PSIA
 CASE = L22_analise_nit

             REACTANT                    WT FRACTION      ENERGY      TEMP
                                          (SEE NOTE)     KJ/KG-MOL      K  
 FUEL        CH3NO2(L)                    1.0000000   -113100.000    298.150
 OXIDANT     N2O                          1.0000000     81671.539    300.000

 O/F=    5.00000  %FUEL= 16.666667  R,EQ.RATIO= 0.391747  PHI,EQ.RATIO= 0.216314

                 CHAMBER   THROAT     EXIT
 Pinf/P            1.0000   1.7713  8484.10
 P, BAR            10.000   5.6455  0.00118
 T, K             2654.81  2433.91   354.37
 RHO, KG/CU M    1.3002 0 8.0398-1 1.1580-3
 H, KJ/KG         1237.55   817.01 -2005.66
 U, KJ/KG          468.44   114.83 -2107.44
 G, KJ/KG        -23192.9 -21580.6 -5266.70
 S, KJ/(KG)(K)     9.2023   9.2023   9.2023

 M, (1/n)          28.700   28.820   28.948
 (dLV/dLP)t      -1.00341 -1.00170 -1.00000
 (dLV/dLT)p        1.0846   1.0466   1.0000
 Cp, KJ/(KG)(K)    2.1677   1.8944   1.0596
 GAMMAs            1.1818   1.1978   1.3718
 SON VEL,M/SEC      953.4    917.1    373.7
 MACH NUMBER        0.000    1.000    6.816

 TRANSPORT PROPERTIES (GASES ONLY)
   CONDUCTIVITY IN UNITS OF MILLIWATTS/(CM)(K)

 VISC,MILLIPOISE  0.87394  0.82306  0.21094

  WITH EQUILIBRIUM REACTIONS

 Cp, KJ/(KG)(K)    2.1677   1.8944   1.0596
 CONDUCTIVITY      3.0364   2.3598   0.3030
 PRANDTL NUMBER    0.6239   0.6607   0.7376

  WITH FROZEN REACTIONS

 Cp, KJ/(KG)(K)    1.4316   1.4192   1.0596
 CONDUCTIVITY      1.7304   1.6047   0.3030
 PRANDTL NUMBER    0.7230   0.7279   0.7376

 PERFORMANCE PARAMETERS

 Ae/At                      1.0000   250.00
 CSTAR, M/SEC               1356.2   1356.2
 CF                         0.6762   1.8779
 Ivac, M/SEC                1682.8   2586.8
 Isp, M/SEC                  917.1   2546.8


 MOLE FRACTIONS

 *CO              0.00420  0.00184  0.00000
 *CO2             0.07417  0.07685  0.07904
 *H               0.00046  0.00017  0.00000
 HO2              0.00004  0.00002  0.00000
 *H2              0.00093  0.00045  0.00000
 H2O              0.10912  0.11306  0.11856
 *NO              0.02451  0.01717  0.00000
 NO2              0.00006  0.00004  0.00000
 *N2              0.57030  0.57641  0.58762
 *O               0.00418  0.00197  0.00000
 *OH              0.01448  0.00886  0.00000
 *O2              0.19756  0.20317  0.21477

  * THERMODYNAMIC PROPERTIES FITTED TO 20000.K

 NOTE. WEIGHT FRACTION OF FUEL IN TOTAL FUELS AND OF OXIDANT IN TOTAL OXIDANTS





           THEORETICAL ROCKET PERFORMANCE ASSUMING FROZEN COMPOSITION
                                 AFTER POINT 3

 Pin =   145.0 PSIA
 CASE = L22_analise_nit

             REACTANT                    WT FRACTION      ENERGY      TEMP
                                          (SEE NOTE)     KJ/KG-MOL      K  
 FUEL        CH3NO2(L)                    1.0000000   -113100.000    298.150
 OXIDANT     N2O                          1.0000000     81671.539    300.000

 O/F=    5.00000  %FUEL= 16.666667  R,EQ.RATIO= 0.391747  PHI,EQ.RATIO= 0.216314

                 CHAMBER   THROAT     EXIT
 Pinf/P            1.0000   1.7713  8484.10
 P, BAR            10.000   5.6455  0.00118
 T, K             2654.81  2433.91   354.37
 RHO, KG/CU M    1.3002 0 8.0398-1 1.1580-3
 H, KJ/KG         1237.55   817.01 -2005.66
 U, KJ/KG          468.44   114.83 -2107.44
 G, KJ/KG        -23192.9 -21580.6 -5266.70
 S, KJ/(KG)(K)     9.2023   9.2023   9.2023

 M, (1/n)          28.700   28.820   28.948
 Cp, KJ/(KG)(K)    2.1677   1.8944   1.0596
 GAMMAs            1.1818   1.1978   1.3718
 SON VEL,M/SEC      953.4    917.1    373.7
 MACH NUMBER        0.000    1.000    6.816

 TRANSPORT PROPERTIES (GASES ONLY)
   CONDUCTIVITY IN UNITS OF MILLIWATTS/(CM)(K)

 VISC,MILLIPOISE  0.87394  0.82306  0.21094

  WITH FROZEN REACTIONS

 Cp, KJ/(KG)(K)    1.4316   1.4192   1.0596
 CONDUCTIVITY      1.7304   1.6047   0.3030
 PRANDTL NUMBER    0.7230   0.7279   0.7376

 PERFORMANCE PARAMETERS

 Ae/At                      1.0000   250.00
 CSTAR, M/SEC               1356.2   1356.2
 CF                         0.6762   1.8779
 Ivac, M/SEC                1682.8   2586.8
 Isp, M/SEC                  917.1   2546.8

 MOLE FRACTIONS

 *CO             0.00423   *CO2            0.07481   *H              0.00047
 HO2             0.00004   *H2             0.00094   H2O             0.11006
 *NO             0.02472   NO2             0.00006   *N2             0.57523
 *O              0.00421   *OH             0.01460   *O2             0.19927

  * THERMODYNAMIC PROPERTIES FITTED TO 20000.K

 NOTE. WEIGHT FRACTION OF FUEL IN TOTAL FUELS AND OF OXIDANT IN TOTAL OXIDANTS



  
